data/mat/ieee9.m
function mpc = ieee9

%ieee9 MATPOWER case generated from D:/codex/elec_power_flow/hybrid_power_system_analysis/data/model/ac/ieee9.e

% Auto-generated by scripts/generate_matpower_cases.py.

% ZIP loads are exported as static P/Q at V=1; zero-impedance ties are bus-collapsed.

mpc.version = '2';

mpc.baseMVA = 100;

mpc.bus = [
	1	3	0	0	0	0	1	1	0	345	1	1.2	0.8;
	2	2	0	0	0	0	1	1	0	345	1	1.2	0.8;
	3	2	0	0	0	0	1	1	0	345	1	1.2	0.8;
	4	1	0	0	0	0	1	1	0	345	1	1.2	0.8;
	5	1	90	30	0	0	1	1	0	345	1	1.2	0.8;
	6	1	0	0	0	0	1	1	0	345	1	1.2	0.8;
	7	1	100	35	0	0	1	1	0	345	1	1.2	0.8;
	8	1	0	0	0	0	1	1	0	345	1	1.2	0.8;
	9	1	125	50	0	0	1	1	0	345	1	1.2	0.8;
];

mpc.gen = [
	1	0	0	1000000000	-1000000000	1	100	1	1000000000	-1000000000	0	0	0	0	0	0	0	0	0	0	0;
	2	163	0	1000000000	-1000000000	1	100	1	1000000000	-1000000000	0	0	0	0	0	0	0	0	0	0	0;
	3	85	0	1000000000	-1000000000	1	100	1	1000000000	-1000000000	0	0	0	0	0	0	0	0	0	0	0;
];

mpc.branch = [
	1	4	0	0.0576	0	0	0	0	0	0	1	-360	360;
	4	5	0.017	0.092	0.158	0	0	0	0	0	1	-360	360;
	5	6	0.039	0.17	0.358	0	0	0	0	0	1	-360	360;
	3	6	0	0.0586	0	0	0	0	0	0	1	-360	360;
	6	7	0.0119	0.1008	0.209	0	0	0	0	0	1	-360	360;
	7	8	0.008500000000000001	0.07199999999999999	0.149	0	0	0	0	0	1	-360	360;
	8	2	0	0.0625	0	0	0	0	0	0	1	-360	360;
	8	9	0.032	0.161	0.306	0	0	0	0	0	1	-360	360;
	9	4	0.01	0.08500000000000001	0.176	0	0	0	0	0	1	-360	360;
];
